<?xml version="1.0" encoding="UTF-8"?>

<!-- generated on 2024-03-17 19:41:21 by Eclipse SUMO netedit Version 1.18.0
-->

<routes xmlns:xsi="http://www.w3.org/2001/XMLSchema-instance" xsi:noNamespaceSchemaLocation="http://sumo.dlr.de/xsd/routes_file.xsd">
    <!-- VTypes -->
    <vType id="DEFAULT_VEHTYPE" laneChangeModel="LC2013" carFollowModel="W99" cc1="0.9" cc2="4" cc3="-8" cc4="-0.35" cc6="11.44" cc8="3.5"/>
    <vType id="t_0" minGap="1.50"/>
    <!-- Vehicles, persons and containers (sorted by depart) -->
    <flow id="f_0" begin="0.00" from="199513334" to="57947376#1" end="3600.00" number="2000"/>
    <flow id="f_1" begin="0.00" color="green" from="-22111769#8" to="57947376#1" end="3600.00" vehsPerHour="2000.00"/>
    <flow id="f_2" begin="0.00" color="blue" from="-414248979#13" to="57947376#1" end="3600.00" vehsPerHour="2000.00"/>
    <flow id="f_3" begin="0.00" color="cyan" from="531825473" to="57947376#1" end="3600.00" vehsPerHour="2000.00"/>
    <flow id="f_4" begin="0.00" color="magenta" from="-535351598" to="57947376#1" end="3600.00" vehsPerHour="2000.00"/>
    <flow id="f_5" begin="0.00" color="0,128,0" from="22149081#0" to="57947376#1" end="3600.00" vehsPerHour="2000.00"/>
    <flow id="f_6" begin="0.00" color="red" from="-22186761" to="57947376#1" end="3600.00" vehsPerHour="2000.00"/>
</routes>
