<?xml version="1.0" encoding="UTF-8"?>

<!-- generated on 2024-02-23 19:47:51 by Eclipse SUMO netedit Version 1.18.0
-->

<routes xmlns:xsi="http://www.w3.org/2001/XMLSchema-instance" xsi:noNamespaceSchemaLocation="http://sumo.dlr.de/xsd/routes_file.xsd">
    <!-- VTypes -->
    <vType id="DEFAULT_VEHTYPE" minGap="1.80" impatience="1.00" color="0,223,255,0" lcCooperative="0.50" accel="3.00" decel="6.00" sigma="0.00"/>
    <vType id="t_0" actionStepLength="1.00" impatience="0.70" guiShape="passenger/van" color="255,135,135,0" laneChangeModel="DK2008" accel="3" decel="5" sigma="1"/>
    <vType id="t_1" minGap="2.00" color="117,0,255,0" accel="3" sigma="0.1"/>
    <!-- Vehicles, persons and containers (sorted by depart) -->
    <flow id="f_0" begin="0.00" color="0,213,255" end="3600.00" vehsPerHour="1800.00">
        <route edges="414448579#0 419541442 419541441 419541446#1 419541440 419541436#1 57898386 1151684343 419549195#0 419549195#1 419549195#2 419549206 57898378 419549207 419549209#0 419549209#1 57898379 57898381#0 57898381#1 57898375 57898374#0 57898374#1 57898374#2 57898370 1151684338 419549215#0 419549215#1 419549215#2 59968999 429323900#0 429323900#1 1151684344#0 1151684344#1 59969000 57898365 202286749 22122457#0 22122457#1 22122457#2 60340396 60340397 60340389 60340391#0 60340391#1 202286747 202286756#0 202286756#1 55177182 55177153#0 55177153#1 55177153#2 55177157 55177097 1151684345#0 1151684345#1 55177116 55176976#0 55176976#1 55176976#2 419584725 419584707 202286745 419584724 419584702 424834753 1151684346 202286754 57947388 57947385#0 57947385#1"/>
    </flow>
    <flow id="f_1" type="t_0" begin="0.00" color="0,255,16" end="3600.00" number="1800">
        <route edges="1081642241 57898389 419541436#0 419541436#1 57898386 1151684343 419549195#0 419549195#1 419549195#2 419549206 57898378 419549207 419549209#0 419549209#1 57898379 57898381#0 57898381#1 57898375 57898374#0 57898374#1 57898374#2 57898370 1151684338 419549215#0 419549215#1 419549215#2 59968999 429323900#0 429323900#1 1151684344#0 1151684344#1 59969000 57898365 202286749 22122457#0 22122457#1 22122457#2 60340396 60340397 60340389 60340391#0 60340391#1 202286747 202286756#0 202286756#1 55177182 55177153#0 55177153#1 55177153#2 55177157 55177097 1151684345#0 1151684345#1 55177116 55176976#0 55176976#1 55176976#2 419584725 419584707 202286745 419584724 419584702 424834753 1151684346 202286754 57947388 57947385#0 57947385#1"/>
    </flow>
    <flow id="f_11" type="t_1" begin="0.00" color="211,158,255" end="3600.00" vehsPerHour="1800.00">
        <route edges="59969224#0 59969224#1 59969224#2 419561986 419549215#2 59968999 429323900#0 429323900#1 1151684344#0 1056713162 1056713163#1 1056713163#2 1056713165 1056713176 1056713179 1056713180 1056713181 1056713182 1056713184 1056713185 1056713187 1056713191 1056713192 1056713193 1056713198 1056713196 1056713200 55177153#2 55177157 55177097 1151684345#0 1151684345#1 55177116 55176976#0 55176976#1 55176976#2 419584725 419584707 202286745 419584724 419584702 424834753 1151684346 202286754 57947388 57947385#0 57947385#1"/>
    </flow>
    <flow id="f_2" type="t_0" begin="0.00" color="249,0,255" end="3600.00" number="1800">
        <route edges="22149284#0 22149284#1 22149284#2 22149284#3 -303564479#5 419549219 22149695#1 57898381#1 57898375 57898374#0 57898374#1 57898374#2 57898370 1151684338 419549215#0 419549215#1 419549215#2 59968999 429323900#0 429323900#1 1151684344#0 1151684344#1 59969000 57898365 202286749 22122457#0 22122457#1 22122457#2 60340396 60340397 60340389 60340391#0 60340391#1 202286747 202286756#0 202286756#1 55177182 55177153#0 55177153#1 55177153#2 55177157 55177097 1151684345#0 1151684345#1 55177116 55176976#0 55176976#1 55176976#2 419584725 419584707 202286745 419584724 419584702 424834753 1151684346 202286754 57947388 57947385#0 57947385#1"/>
    </flow>
    <flow id="f_3" begin="0.00" color="249,0,255" end="3600.00" number="1800">
        <route edges="-22149113 -22149106#1 -22149106#0 -22149704 -303564479#5 419549219 22149695#1 57898381#1 57898375 57898374#0 57898374#1 57898374#2 57898370 1151684338 419549215#0 419549215#1 419549215#2 59968999 429323900#0 429323900#1 1151684344#0 1151684344#1 59969000 57898365 202286749 22122457#0 22122457#1 22122457#2 60340396 60340397 60340389 60340391#0 60340391#1 202286747 202286756#0 202286756#1 55177182 55177153#0 55177153#1 55177153#2 55177157 55177097 1151684345#0 1151684345#1 55177116 55176976#0 55176976#1 55176976#2 419584725 419584707 202286745 419584724 419584702 424834753 1151684346 202286754 57947388 57947385#0 57947385#1"/>
    </flow>
    <flow id="f_4" begin="0.00" color="37,0,255" end="3600.00" number="1800">
        <route edges="414448579#0 419541442 419541441 419541446#1 419541440 419541436#1 57898386 1151684343 419549195#0 419549195#1 419549195#2 419549206 57898378 419549207 419549209#0 419549209#1 57898379 57898381#0 57898381#1 57898375 57898374#0 57898374#1 57898374#2 57898370 1151684338 419549215#0 1056713157 1056713154 1056713202 1056713159 1056713163#0 1056713163#1 1056713163#2 1056713165 1056713176 1056713179 1056713180 1056713181 1056713182 1056713184 1056713185 1056713186 1056713191 1056713192 1056713193 1056713198 1056713196 1056713200 55177153#2 55177157 55177097 1151684345#0 1151684345#1 55177116 55176976#0 55176976#1 55176976#2 419584725 419584707 202286745 419584724 419584702 424834753 1151684346 202286754 57947388 57947385#0 57947385#1"/>
    </flow>
    <flow id="f_5" begin="0.00" color="201,255,0" end="3600.00" number="1800">
        <route edges="1081642241 57898389 419541436#0 419541436#1 57898386 1151684343 419549195#0 419549195#1 419549195#2 419549206 57898378 419549207 419549209#0 419549209#1 57898379 57898381#0 57898381#1 57898375 57898374#0 57898374#1 57898374#2 57898370 1151684338 419549215#0 1056713157 1056713154 1056713202 1056713159 1056713163#0 1056713163#1 1056713163#2 1056713165 1056713176 1056713179 1056713180 1056713181 1056713182 1056713184 1056713185 1056713186 1056713191 1056713192 1056713193 1056713198 1056713196 1056713200 55177153#2 55177157 55177097 1151684345#0 1151684345#1 55177116 55176976#0 55176976#1 55176976#2 419584725 419584707 202286745 419584724 419584702 424834753 1151684346 202286754 57947388 57947385#0 57947385#1"/>
    </flow>
    <flow id="f_6" begin="0.00" color="191,0,180" end="3600.00" number="1800">
        <route edges="319010769#0 22114823 22119791#3 55177153#1 55177153#2 55177157 55177097 1151684345#0 1151684345#1 55177116 55176976#0 55176976#1 55176976#2 419584725 419584707 202286745 419584724 419584702 424834753 1151684346 202286754 57947388 57947385#0 57947385#1"/>
    </flow>
    <flow id="f_7" begin="0.00" color="191,0,180" end="3600.00" number="1800">
        <route edges="-828837257 -22236943#3 -22236943#2 -22236943#1 -22236943#0 22234210 60340391#1 202286747 202286756#0 202286756#1 55177182 55177153#0 55177153#1 55177153#2 55177157 55177097 1151684345#0 1151684345#1 55177116 55176976#0 55176976#1 55176976#2 419584725 419584707 202286745 419584724 419584702 424834753 1151684346 202286754 57947388 57947385#0 57947385#1"/>
    </flow>
    <flow id="f_8" begin="0.00" color="191,0,180" end="3600.00" number="1800">
        <route edges="-22237365 -22236498#1 -22236829#3 -22236829#2 -22236829#1 -22236829#0 -22236919#1 -22236919#0 -22235884#2 -22235884#1 -22235884#0 22237625#0 22237625#1 22237625#2 22237625#3 -22236943#7 -22236943#6 -22236943#5 -22236943#4 -22236943#3 -22236943#2 -22236943#1 -22236943#0 22234210 60340391#1 202286747 202286756#0 202286756#1 55177182 55177153#0 55177153#1 55177153#2 55177157 55177097 1151684345#0 1151684345#1 55177116 55176976#0 55176976#1 55176976#2 419584725 419584707 202286745 419584724 419584702 424834753 1151684346 202286754 57947388 57947385#0 57947385#1"/>
    </flow>
    <flow id="f_9" type="t_1" begin="50.00" color="139,0,255" end="3600.00" vehsPerHour="1800.00">
        <route edges="59969224#0 59969224#1 59969224#2 419561986 419549215#2 59968999 429323900#0 429323900#1 1151684344#0 1151684344#1 59969000 57898365 202286749 22122457#0 22122457#1 22122457#2 60340396 60340397 60340389 60340391#0 60340391#1 202286747 202286756#0 202286756#1 55177182 55177153#0 55177153#1 55177153#2 55177157 55177097 1151684345#0 1151684345#1 55177116 55176976#0 55176976#1 55176976#2 419584725 419584707 202286745 419584724 419584702 424834753 1151684346 202286754 57947388 57947385#0 57947385#1"/>
    </flow>
</routes>
