<?xml version="1.0" encoding="UTF-8"?>

<!-- generated on 2024-02-06 11:20:50 by Eclipse SUMO netedit Version 1.18.0
-->

<routes xmlns:xsi="http://www.w3.org/2001/XMLSchema-instance" xsi:noNamespaceSchemaLocation="http://sumo.dlr.de/xsd/routes_file.xsd">
    <!-- VTypes -->
    <vType id="DEFAULT_VEHTYPE" minGap="2.00" vClass="private" accel="3"/>
    <vType id="t_0" accel="2.6" decel="4.5" sigma="0.5"/>
    <vType id="t_1" accel="2.6" decel="4.5" sigma="0.5"/>
    <vType id="t_2" accel="2.6" decel="4.5" sigma="0.5"/>
    <!-- Vehicles, persons and containers (sorted by depart) -->
     <flow id="f_0" type="t_2" begin="0.00" end="3600.00" vehsPerHour="1800.00">
        <route edges="414448579#0 419541442 419541441 419541446#1 419541440 419541436#1 57898386 1151684343 419549195#0 419549195#1 419549195#2 419549206 57898378 419549207 419549209#0 419549209#1 57898379 57898381#0 57898381#1"/>
    </flow>
    <flow id="f_1" type="t_1" begin="0.00" color="255,0,22" end="3600.00" vehsPerHour="1800.00">
        <route edges="22246798#1 419541446#0 419541446#1 419541440 419541436#1 57898386 1151684343 419549195#0 419549195#1 419549195#2 419549206 57898378 419549207 419549209#0 419549209#1 57898379 57898381#0 57898381#1"/>
    </flow>
    <flow id="f_2" type="t_0" begin="0.00" color="0,8,255" end="3600.00" vehsPerHour="1800.00">
        <route edges="57898389 419541436#0 419541436#1 57898386 1151684343 419549195#0 419549195#1 419549195#2 419549206 57898378 419549207 419549209#0 419549209#1 57898379 57898381#0 57898381#1"/>
    </flow>
</routes>
