<?xml version="1.0" encoding="UTF-8"?>

<!-- generated on 2024-02-23 20:00:49 by Eclipse SUMO netedit Version 1.18.0
<configuration xmlns:xsi="http://www.w3.org/2001/XMLSchema-instance" xsi:noNamespaceSchemaLocation="http://sumo.dlr.de/xsd/neteditConfiguration.xsd">

    <input>
        <sumocfg-file value="C:\Users\midgard\Downloads\planet_-66.342_18.426_13e38a28.osm\planet_-66.342_18.426_13e38a28.osm\sumotest.sumocfg"/>
        <additional-files value="C:\Users\midgard\Downloads\planet_-66.342_18.426_13e38a28.osm\planet_-66.342_18.426_13e38a28.osm\sumotest.sumocfg.add.xml"/>
        <route-files value="C:\Users\midgard\Downloads\planet_-66.342_18.426_13e38a28.osm\planet_-66.342_18.426_13e38a28.osm\net.rou.xml"/>
        <sumo-net-file value="C:\Users\midgard\Downloads\planet_-66.342_18.426_13e38a28.osm\planet_-66.342_18.426_13e38a28.osm\sumotest.net.xml"/>
    </input>

    <output>
        <output-file value="C:\Users\midgard\Downloads\planet_-66.342_18.426_13e38a28.osm\planet_-66.342_18.426_13e38a28.osm\sumotest.net.xml"/>
    </output>

    <processing>
        <geometry.min-radius.fix.railways value="false"/>
        <geometry.max-grade.fix value="false"/>
        <offset.disable-normalization value="true"/>
        <lefthand value="0"/>
    </processing>

    <junctions>
        <no-turnarounds value="true"/>
        <junctions.corner-detail value="5"/>
        <junctions.limit-turn-speed value="5.50"/>
        <rectangular-lane-cut value="0"/>
    </junctions>

    <pedestrian>
        <walkingareas value="0"/>
    </pedestrian>

</configuration>
-->

<net version="1.16" junctionCornerDetail="5" limitTurnSpeed="5.50" xmlns:xsi="http://www.w3.org/2001/XMLSchema-instance" xsi:noNamespaceSchemaLocation="http://sumo.dlr.de/xsd/net_file.xsd">

    <location netOffset="0.00,0.00" convBoundary="780114.31,2037720.78,805297.05,2040236.33" origBoundary="-66.348183,18.409334,-66.110167,18.433845" projParameter="+proj=utm +zone=19 +ellps=WGS84 +datum=WGS84 +units=m +no_defs"/>

    <type id="highway.cycleway" priority="1" numLanes="1" speed="5.56" allow="bicycle" oneway="0" width="2.00"/>
    <type id="highway.footway" priority="1" numLanes="1" speed="2.78" allow="pedestrian" oneway="1" width="2.00"/>
    <type id="highway.motorway" priority="14" numLanes="2" speed="39.44" allow="private emergency authority army vip passenger hov taxi bus coach delivery truck trailer motorcycle evehicle custom1 custom2" oneway="1"/>
    <type id="highway.motorway_link" priority="9" numLanes="1" speed="22.22" allow="private emergency authority army vip passenger hov taxi bus coach delivery truck trailer motorcycle evehicle custom1 custom2" oneway="1"/>
    <type id="highway.path" priority="1" numLanes="1" speed="5.56" allow="pedestrian bicycle" oneway="0" width="2.00"/>
    <type id="highway.pedestrian" priority="1" numLanes="1" speed="2.78" allow="pedestrian" oneway="1" width="2.00"/>
    <type id="highway.primary" priority="12" numLanes="2" speed="27.78" disallow="tram rail_urban rail rail_electric rail_fast ship" oneway="0"/>
    <type id="highway.residential" priority="3" numLanes="1" speed="13.89" disallow="tram rail_urban rail rail_electric rail_fast ship" oneway="0"/>
    <type id="highway.secondary" priority="11" numLanes="1" speed="27.78" disallow="tram rail_urban rail rail_electric rail_fast ship" oneway="0"/>
    <type id="highway.secondary_link" priority="6" numLanes="1" speed="22.22" disallow="tram rail_urban rail rail_electric rail_fast ship" oneway="0"/>
    <type id="highway.service" priority="1" numLanes="1" speed="5.56" allow="pedestrian delivery bicycle" oneway="0"/>
    <type id="highway.tertiary" priority="10" numLanes="1" speed="22.22" disallow="tram rail_urban rail rail_electric rail_fast ship" oneway="0"/>
    <type id="highway.tertiary_link" priority="5" numLanes="1" speed="22.22" disallow="tram rail_urban rail rail_electric rail_fast ship" oneway="0"/>
    <type id="highway.track" priority="1" numLanes="1" speed="5.56" allow="pedestrian motorcycle moped bicycle" oneway="0"/>
    <type id="highway.trunk" priority="13" numLanes="2" speed="27.78" disallow="pedestrian bicycle tram rail_urban rail rail_electric rail_fast ship" oneway="0"/>
    <type id="highway.trunk_link" priority="8" numLanes="1" speed="22.22" disallow="pedestrian bicycle tram rail_urban rail rail_electric rail_fast ship" oneway="0"/>
    <type id="highway.unclassified" priority="4" numLanes="1" speed="13.89" disallow="tram rail_urban rail rail_electric rail_fast ship" oneway="0"/>

    <edge id=":10174638255_0" function="internal">
        <lane id=":10174638255_0_0" index="0" disallow="pedestrian bicycle tram rail_urban rail rail_electric rail_fast ship" speed="22.35" length="4.00" shape="801995.34,2039202.46 801997.00,2039206.10"/>
        <lane id=":10174638255_0_1" index="1" disallow="pedestrian bicycle tram rail_urban rail rail_electric rail_fast ship" speed="22.35" length="4.00" shape="801992.43,2039203.79 801994.09,2039207.43"/>
    </edge>
    <edge id=":10174638255_2" function="internal">
        <lane id=":10174638255_2_0" index="0" allow="private emergency authority army vip passenger hov taxi bus coach delivery truck trailer motorcycle evehicle custom1 custom2" speed="8.29" length="8.31" shape="801987.48,2039202.95 801989.75,2039203.55 801991.61,2039204.49 801993.06,2039205.79 801994.09,2039207.43"/>
    </edge>
    <edge id=":10235945704_0" function="internal">
        <lane id=":10235945704_0_0" index="0" disallow="tram rail_urban rail rail_electric rail_fast ship" speed="22.22" length="15.05" shape="801388.54,2039375.64 801386.95,2039390.60"/>
    </edge>
    <edge id=":10235945704_1" function="internal">
        <lane id=":10235945704_1_0" index="0" allow="private emergency authority army vip passenger hov taxi bus coach delivery truck trailer motorcycle evehicle custom1 custom2" speed="6.57" length="5.96" shape="801388.54,2039375.64 801387.47,2039381.26 801387.32,2039381.44"/>
    </edge>
    <edge id=":10235945704_4" function="internal">
        <lane id=":10235945704_4_0" index="0" allow="private emergency authority army vip passenger hov taxi bus coach delivery truck trailer motorcycle evehicle custom1 custom2" speed="6.57" length="11.15" shape="801387.32,2039381.44 801385.95,2039383.11 801383.95,2039381.17 801381.49,2039375.46"/>
    </edge>
    <edge id=":10235945704_2" function="internal">
        <lane id=":10235945704_2_0" index="0" allow="private emergency authority army vip passenger hov taxi bus coach delivery truck trailer motorcycle evehicle custom1 custom2" speed="21.27" length="15.08" shape="801383.76,2039390.26 801383.87,2039386.51 801383.45,2039382.76 801382.63,2039379.07 801381.49,2039375.46"/>
    </edge>
    <edge id=":10235945704_3" function="internal">
        <lane id=":10235945704_3_0" index="0" disallow="tram rail_urban rail rail_electric rail_fast ship" speed="22.22" length="15.04" shape="801383.76,2039390.26 801385.35,2039375.30"/>
    </edge>
    <edge id=":10235945708_0" function="internal">
        <lane id=":10235945708_0_0" index="0" allow="private emergency authority army vip passenger hov taxi bus coach delivery truck trailer motorcycle evehicle custom1 custom2" speed="15.63" length="9.80" shape="801369.05,2039359.52 801366.60,2039357.91 801364.92,2039356.69 801363.12,2039355.89 801360.31,2039355.54"/>
    </edge>
    <edge id=":10235945708_1" function="internal">
        <lane id=":10235945708_1_0" index="0" allow="private emergency authority army vip passenger hov taxi bus coach delivery truck trailer motorcycle evehicle custom1 custom2" speed="22.22" length="9.78" shape="801370.09,2039355.83 801360.31,2039355.54"/>
    </edge>
    <edge id=":10594992640_0" function="internal">
        <lane id=":10594992640_0_0" index="0" allow="private emergency authority army vip passenger hov taxi bus coach delivery truck trailer motorcycle evehicle custom1 custom2" speed="11.56" length="8.46" shape="781671.43,2039668.21 781673.13,2039666.50 781673.85,2039664.96 781674.17,2039663.17 781674.69,2039660.69"/>
    </edge>
    <edge id=":10594992640_1" function="internal">
        <lane id=":10594992640_1_0" index="0" allow="private emergency authority army vip passenger hov taxi bus coach delivery truck trailer motorcycle evehicle custom1 custom2" speed="29.06" length="8.49" shape="781671.43,2039668.21 781678.01,2039662.85"/>
        <lane id=":10594992640_1_1" index="1" allow="private emergency authority army vip passenger hov taxi bus coach delivery truck trailer motorcycle evehicle custom1 custom2" speed="29.06" length="8.49" shape="781673.45,2039670.69 781680.03,2039665.34"/>
    </edge>
    <edge id=":10594992648_0" function="internal">
        <lane id=":10594992648_0_0" index="0" allow="delivery" speed="9.63" length="6.75" shape="781775.96,2039544.27 781777.12,2039545.92 781777.98,2039547.09 781779.06,2039547.91 781780.88,2039548.53"/>
    </edge>
    <edge id=":10594992648_1" function="internal">
        <lane id=":10594992648_1_0" index="0" allow="delivery" speed="5.15" length="4.89" shape="781773.07,2039550.58 781773.90,2039549.55 781774.23,2039548.49 781774.08,2039547.38 781773.42,2039546.22"/>
    </edge>
    <edge id=":10594992648_2" function="internal">
        <lane id=":10594992648_2_0" index="0" allow="private emergency authority army vip passenger hov taxi bus coach delivery truck trailer motorcycle evehicle custom1 custom2" speed="8.28" length="8.43" shape="781773.07,2039550.58 781774.80,2039549.29 781776.69,2039548.51 781778.71,2039548.26 781780.88,2039548.53"/>
    </edge>
    <edge id=":10594992653_0" function="internal">
        <lane id=":10594992653_0_0" index="0" allow="private emergency authority army vip passenger hov taxi bus coach delivery truck trailer motorcycle evehicle custom1 custom2" speed="18.00" length="15.19" shape="781809.58,2039548.94 781813.04,2039548.49 781816.30,2039547.92 781819.70,2039546.63 781823.64,2039543.97"/>
    </edge>
    <edge id=":10594992653_1" function="internal">
        <lane id=":10594992653_1_0" index="0" allow="private emergency authority army vip passenger hov taxi bus coach delivery truck trailer motorcycle evehicle custom1 custom2" speed="29.06" length="15.23" shape="781811.86,2039553.62 781823.64,2039543.97"/>
        <lane id=":10594992653_1_1" index="1" allow="private emergency authority army vip passenger hov taxi bus coach delivery truck trailer motorcycle evehicle custom1 custom2" speed="29.06" length="15.23" shape="781813.89,2039556.09 781825.67,2039546.45"/>
    </edge>
    <edge id=":10594992655_0" function="internal">
        <lane id=":10594992655_0_0" index="0" allow="pedestrian delivery bicycle" speed="5.02" length="5.02" shape="781769.21,2039540.75 781768.23,2039539.79 781767.17,2039539.38 781766.05,2039539.52 781764.86,2039540.22"/>
    </edge>
    <edge id=":10594992655_1" function="internal">
        <lane id=":10594992655_1_0" index="0" allow="pedestrian delivery bicycle" speed="5.56" length="9.40" shape="781769.21,2039540.75 781763.50,2039533.29"/>
    </edge>
    <edge id=":10594992655_2" function="internal">
        <lane id=":10594992655_2_0" index="0" allow="pedestrian delivery bicycle" speed="5.56" length="9.39" shape="781766.04,2039531.35 781771.75,2039538.80"/>
    </edge>
    <edge id=":10594992655_3" function="internal">
        <lane id=":10594992655_3_0" index="0" allow="pedestrian delivery bicycle" speed="5.56" length="10.16" shape="781766.04,2039531.35 781767.38,2039533.75 781767.63,2039536.03 781766.79,2039538.19 781764.86,2039540.22"/>
    </edge>
    <edge id=":10594992655_4" function="internal">
        <lane id=":10594992655_4_0" index="0" allow="pedestrian delivery bicycle" speed="5.11" length="5.08" shape="781762.86,2039537.72 781763.84,2039536.70 781764.27,2039535.62 781764.15,2039534.48 781763.50,2039533.29"/>
    </edge>
    <edge id=":10594992655_5" function="internal">
        <lane id=":10594992655_5_0" index="0" allow="pedestrian delivery bicycle" speed="5.56" length="10.26" shape="781762.86,2039537.72 781765.29,2039536.29 781767.58,2039536.00 781769.73,2039536.83 781771.75,2039538.80"/>
    </edge>
    <edge id=":10742379490_0" function="internal">
        <lane id=":10742379490_0_0" index="0" disallow="tram rail_urban rail rail_electric rail_fast ship" speed="13.89" length="14.40" shape="796448.90,2038614.23 796448.78,2038628.63"/>
    </edge>
    <edge id=":10742379490_1" function="internal">
        <lane id=":10742379490_1_0" index="0" disallow="tram rail_urban rail rail_electric rail_fast ship" speed="8.01" length="4.06" shape="796448.90,2038614.23 796448.32,2038618.07 796448.22,2038618.22"/>
    </edge>
    <edge id=":10742379490_6" function="internal">
        <lane id=":10742379490_6_0" index="0" disallow="tram rail_urban rail rail_electric rail_fast ship" speed="8.01" length="10.13" shape="796448.22,2038618.22 796446.64,2038620.81 796443.88,2038622.44 796440.02,2038622.97"/>
    </edge>
    <edge id=":10742379490_2" function="internal">
        <lane id=":10742379490_2_0" index="0" disallow="tram rail_urban rail rail_electric rail_fast ship" speed="6.52" length="9.04" shape="796440.04,2038619.77 796442.50,2038619.43 796444.26,2038618.39 796445.33,2038616.65 796445.70,2038614.20"/>
    </edge>
    <edge id=":10742379490_3" function="internal">
        <lane id=":10742379490_3_0" index="0" disallow="tram rail_urban rail rail_electric rail_fast ship" speed="8.00" length="14.20" shape="796440.04,2038619.77 796443.89,2038620.34 796446.63,2038622.01 796448.26,2038624.77 796448.78,2038628.63"/>
    </edge>
    <edge id=":10742379490_4" function="internal">
        <lane id=":10742379490_4_0" index="0" disallow="tram rail_urban rail rail_electric rail_fast ship" speed="6.50" length="9.03" shape="796445.58,2038628.60 796445.25,2038626.15 796444.21,2038624.39 796442.47,2038623.33 796440.02,2038622.97"/>
    </edge>
    <edge id=":10742379490_5" function="internal">
        <lane id=":10742379490_5_0" index="0" disallow="tram rail_urban rail rail_electric rail_fast ship" speed="13.89" length="14.40" shape="796445.58,2038628.60 796445.70,2038614.20"/>
    </edge>
    <edge id=":2122595329_0" function="internal">
        <lane id=":2122595329_0_0" index="0" allow="private emergency authority army vip passenger hov taxi bus coach delivery truck trailer motorcycle evehicle custom1 custom2" speed="24.59" length="8.18" shape="794981.24,2038373.74 794983.54,2038374.48 794985.23,2038374.64 794986.91,2038374.81 794989.18,2038375.60"/>
        <lane id=":2122595329_0_1" index="1" allow="private emergency authority army vip passenger hov taxi bus coach delivery truck trailer motorcycle evehicle custom1 custom2" speed="24.59" length="8.18" shape="794979.94,2038376.66 794982.22,2038377.40 794983.90,2038377.55 794985.57,2038377.72 794987.83,2038378.50"/>
    </edge>
    <edge id=":2122595332_0" function="internal">
        <lane id=":2122595332_0_0" index="0" allow="private emergency authority army vip passenger hov taxi bus coach delivery truck trailer motorcycle evehicle custom1 custom2" speed="24.59" length="0.30" shape="794973.66,2038399.19 794973.38,2038399.06"/>
        <lane id=":2122595332_0_1" index="1" allow="private emergency authority army vip passenger hov taxi bus coach delivery truck trailer motorcycle evehicle custom1 custom2" speed="24.59" length="0.30" shape="794974.97,2038396.27 794974.71,2038396.15"/>
    </edge>
    <edge id=":2122595341_0" function="internal">
        <lane id=":2122595341_0_0" index="0" allow="private emergency authority army vip passenger hov taxi bus coach delivery truck trailer motorcycle evehicle custom1 custom2" speed="24.59" length="0.10" shape="798164.95,2038829.88 798165.03,2038829.89"/>
        <lane id=":2122595341_0_1" index="1" allow="private emergency authority army vip passenger hov taxi bus coach delivery truck trailer motorcycle evehicle custom1 custom2" speed="24.59" length="0.10" shape="798164.63,2038833.06 798164.55,2038833.05"/>
    </edge>
    <edge id=":2122595343_0" function="internal">
        <lane id=":2122595343_0_0" index="0" allow="private emergency authority army vip passenger hov taxi bus coach delivery truck trailer motorcycle evehicle custom1 custom2" speed="25.00" length="17.13" shape="799589.96,2038962.75 799591.77,2038959.61 799593.61,2038956.39 799595.25,2038952.43 799596.42,2038947.05"/>
    </edge>
    <edge id=":2122595343_1" function="internal">
        <lane id=":2122595343_1_0" index="0" disallow="tram rail_urban rail rail_electric rail_fast ship" speed="27.78" length="17.15" shape="799594.30,2038964.09 799596.42,2038947.05"/>
        <lane id=":2122595343_1_1" index="1" disallow="tram rail_urban rail rail_electric rail_fast ship" speed="27.78" length="17.15" shape="799597.47,2038964.49 799599.60,2038947.49"/>
    </edge>
    <edge id=":2122595344_0" function="internal">
        <lane id=":2122595344_0_0" index="0" allow="private emergency authority army vip passenger hov taxi bus coach delivery truck trailer motorcycle evehicle custom1 custom2" speed="25.00" length="16.87" shape="799617.65,2038953.74 799617.20,2038959.12 799617.66,2038963.29 799618.61,2038966.83 799619.60,2038970.31"/>
    </edge>
    <edge id=":2122595344_1" function="internal">
        <lane id=":2122595344_1_0" index="0" disallow="tram rail_urban rail rail_electric rail_fast ship" speed="27.78" length="16.92" shape="799617.65,2038953.74 799614.93,2038970.43"/>
        <lane id=":2122595344_1_1" index="1" disallow="tram rail_urban rail rail_electric rail_fast ship" speed="27.78" length="16.92" shape="799614.49,2038953.21 799611.77,2038969.92"/>
    </edge>
    <edge id=":2122595346_0" function="internal">
        <lane id=":2122595346_0_0" index="0" allow="private emergency authority army vip passenger hov taxi bus coach delivery truck trailer motorcycle evehicle custom1 custom2" speed="6.57" length="9.16" shape="799606.69,2039021.07 799606.63,2039023.61 799607.38,2039025.56 799608.93,2039026.91 799611.28,2039027.68"/>
    </edge>
    <edge id=":2122595346_1" function="internal">
        <lane id=":2122595346_1_0" index="0" disallow="tram rail_urban rail rail_electric rail_fast ship" speed="27.78" length="11.35" shape="799606.69,2039021.07 799604.91,2039032.27"/>
        <lane id=":2122595346_1_1" index="1" disallow="tram rail_urban rail rail_electric rail_fast ship" speed="27.78" length="11.35" shape="799603.53,2039020.55 799601.75,2039031.78"/>
    </edge>
    <edge id=":2122595346_3" function="internal">
        <lane id=":2122595346_3_0" index="0" allow="private emergency authority army vip passenger hov taxi bus coach delivery truck trailer motorcycle evehicle custom1 custom2" speed="22.22" length="14.45" shape="799597.10,2039024.94 799611.28,2039027.68"/>
    </edge>
    <edge id=":2122595346_4" function="internal">
        <lane id=":2122595346_4_0" index="0" allow="private emergency authority army vip passenger hov taxi bus coach delivery truck trailer motorcycle evehicle custom1 custom2" speed="6.73" length="9.31" shape="799597.10,2039024.94 799599.46,2039025.82 799601.02,2039027.25 799601.79,2039029.23 799601.75,2039031.78"/>
    </edge>
    <edge id=":2122595350_0" function="internal">
        <lane id=":2122595350_0_0" index="0" allow="private emergency authority army vip passenger hov taxi bus coach delivery truck trailer motorcycle evehicle custom1 custom2" speed="6.67" length="13.96" shape="801978.31,2039209.73 801977.14,2039205.88 801977.86,2039203.40 801980.47,2039202.28 801984.97,2039202.52"/>
    </edge>
    <edge id=":2122595350_1" function="internal">
        <lane id=":2122595350_1_0" index="0" allow="private emergency authority army vip passenger hov taxi bus coach delivery truck trailer motorcycle evehicle custom1 custom2" speed="17.95" length="15.29" shape="801970.04,2039204.92 801973.65,2039203.69 801977.41,2039202.75 801981.22,2039202.30 801984.97,2039202.52"/>
    </edge>
    <edge id=":2122595357_0" function="internal">
        <lane id=":2122595357_0_0" index="0" allow="private emergency authority army vip passenger hov taxi bus coach delivery truck trailer motorcycle evehicle custom1 custom2" speed="22.22" length="11.06" shape="801991.91,2039306.20 801994.95,2039307.00 801997.27,2039307.66 801999.61,2039308.14 802002.72,2039308.38"/>
    </edge>
    <edge id=":2122595357_1" function="internal">
        <lane id=":2122595357_1_0" index="0" allow="private emergency authority army vip passenger hov taxi bus coach delivery truck trailer motorcycle evehicle custom1 custom2" speed="22.22" length="11.06" shape="801991.80,2039309.93 801994.88,2039309.31 801997.23,2039308.78 801999.60,2039308.44 802002.72,2039308.38"/>
    </edge>
    <edge id=":2122595358_0" function="internal">
        <lane id=":2122595358_0_0" index="0" allow="private emergency authority army vip passenger hov taxi bus coach delivery truck trailer motorcycle evehicle custom1 custom2" speed="24.59" length="0.30" shape="803215.32,2039347.54 803215.60,2039347.54"/>
        <lane id=":2122595358_0_1" index="1" allow="private emergency authority army vip passenger hov taxi bus coach delivery truck trailer motorcycle evehicle custom1 custom2" speed="24.59" length="0.30" shape="803215.29,2039350.74 803215.60,2039350.74"/>
    </edge>
    <edge id=":2122595359_0" function="internal">
        <lane id=":2122595359_0_0" index="0" allow="private emergency authority army vip passenger hov taxi bus coach delivery truck trailer motorcycle evehicle custom1 custom2" speed="24.59" length="0.27" shape="803166.15,2039347.05 803166.46,2039347.05"/>
        <lane id=":2122595359_0_1" index="1" allow="private emergency authority army vip passenger hov taxi bus coach delivery truck trailer motorcycle evehicle custom1 custom2" speed="24.59" length="0.27" shape="803166.20,2039350.25 803166.43,2039350.25"/>
    </edge>
    <edge id=":2122595360_0" function="internal">
        <lane id=":2122595360_0_0" index="0" allow="private emergency authority army vip passenger hov taxi bus coach delivery truck trailer motorcycle evehicle custom1 custom2" speed="24.59" length="9.71" shape="803220.21,2039362.43 803217.65,2039363.17 803216.20,2039364.81 803214.75,2039366.45 803212.19,2039367.17"/>
        <lane id=":2122595360_0_1" index="1" allow="private emergency authority army vip passenger hov taxi bus coach delivery truck trailer motorcycle evehicle custom1 custom2" speed="24.59" length="9.71" shape="803220.23,2039359.23 803217.67,2039359.97 803216.22,2039361.61 803214.78,2039363.25 803212.22,2039363.97"/>
    </edge>
    <edge id=":2122595361_0" function="internal">
        <lane id=":2122595361_0_0" index="0" allow="private emergency authority army vip passenger hov taxi bus coach delivery truck trailer motorcycle evehicle custom1 custom2" speed="24.59" length="0.30" shape="803165.83,2039366.74 803165.55,2039366.74"/>
        <lane id=":2122595361_0_1" index="1" allow="private emergency authority army vip passenger hov taxi bus coach delivery truck trailer motorcycle evehicle custom1 custom2" speed="24.59" length="0.30" shape="803165.86,2039363.54 803165.56,2039363.54"/>
    </edge>
    <edge id=":2122595364_0" function="internal">
        <lane id=":2122595364_0_0" index="0" allow="private emergency authority army vip passenger hov taxi bus coach delivery truck trailer motorcycle evehicle custom1 custom2" speed="22.22" length="8.21" shape="802110.16,2039378.50 802107.93,2039379.40 802106.54,2039380.38 802105.16,2039381.36 802102.93,2039382.29"/>
    </edge>
    <edge id=":2122595365_0" function="internal">
        <lane id=":2122595365_0_0" index="0" allow="private emergency authority army vip passenger hov taxi bus coach delivery truck trailer motorcycle evehicle custom1 custom2" speed="22.22" length="0.29" shape="802042.51,2039400.48 802042.23,2039400.56"/>
    </edge>
    <edge id=":2267858683_0" function="internal">
        <lane id=":2267858683_0_0" index="0" disallow="tram rail_urban rail rail_electric rail_fast ship" speed="22.22" length="16.25" shape="796636.25,2038842.23 796632.32,2038841.70 796628.16,2038841.11 796624.01,2038840.75 796620.09,2038840.91"/>
    </edge>
    <edge id=":2267858683_1" function="internal">
        <lane id=":2267858683_1_0" index="0" disallow="tram rail_urban rail rail_electric rail_fast ship" speed="4.90" length="9.38" shape="796636.25,2038842.23 796634.08,2038841.08 796633.22,2038838.92 796633.75,2038836.73 796635.76,2038835.52"/>
    </edge>
    <edge id=":2267858683_2" function="internal">
        <lane id=":2267858683_2_0" index="0" disallow="tram rail_urban rail rail_electric rail_fast ship" speed="22.22" length="16.25" shape="796636.19,2038838.69 796620.09,2038840.91"/>
    </edge>
    <edge id=":2267858683_3" function="internal">
        <lane id=":2267858683_3_0" index="0" disallow="tram rail_urban rail rail_electric rail_fast ship" speed="22.22" length="16.26" shape="796619.65,2038837.74 796635.76,2038835.52"/>
    </edge>
    <edge id=":2267858687_0" function="internal">
        <lane id=":2267858687_0_0" index="0" disallow="tram rail_urban rail rail_electric rail_fast ship" speed="22.22" length="9.06" shape="796723.98,2038885.75 796724.20,2038894.81"/>
    </edge>
    <edge id=":2267858687_1" function="internal">
        <lane id=":2267858687_1_0" index="0" disallow="tram rail_urban rail rail_electric rail_fast ship" speed="6.14" length="4.62" shape="796723.98,2038885.75 796723.65,2038890.15 796723.53,2038890.31"/>
    </edge>
    <edge id=":2267858687_4" function="internal">
        <lane id=":2267858687_4_0" index="0" disallow="tram rail_urban rail rail_electric rail_fast ship" speed="6.14" length="9.22" shape="796723.53,2038890.31 796722.39,2038891.83 796720.18,2038890.80 796717.05,2038887.06"/>
    </edge>
    <edge id=":2267858687_2" function="internal">
        <lane id=":2267858687_2_0" index="0" disallow="tram rail_urban rail rail_electric rail_fast ship" speed="11.66" length="8.94" shape="796721.00,2038894.74 796720.77,2038892.22 796719.99,2038890.60 796718.73,2038889.14 796717.05,2038887.06"/>
    </edge>
    <edge id=":2267858687_3" function="internal">
        <lane id=":2267858687_3_0" index="0" disallow="tram rail_urban rail rail_electric rail_fast ship" speed="22.22" length="8.92" shape="796721.00,2038894.74 796720.78,2038885.82"/>
    </edge>
    <edge id=":237919139_0" function="internal">
        <lane id=":237919139_0_0" index="0" allow="pedestrian delivery bicycle" speed="5.56" length="7.78" shape="800111.63,2039230.29 800110.98,2039232.33 800109.84,2039233.66 800108.20,2039234.30 800106.07,2039234.23"/>
    </edge>
    <edge id=":237919139_1" function="internal">
        <lane id=":237919139_1_0" index="0" allow="pedestrian delivery bicycle" speed="3.90" length="2.59" shape="800106.62,2039231.08 800107.33,2039231.10 800107.87,2039230.89 800108.25,2039230.45 800108.47,2039229.77"/>
    </edge>
    <edge id=":237919142_0" function="internal">
        <lane id=":237919142_0_0" index="0" allow="pedestrian delivery bicycle" speed="5.04" length="5.00" shape="800009.54,2039217.47 800008.17,2039217.43 800007.11,2039217.84 800006.37,2039218.70 800005.95,2039220.00"/>
    </edge>
    <edge id=":237919142_1" function="internal">
        <lane id=":237919142_1_0" index="0" allow="pedestrian delivery bicycle" speed="5.56" length="10.05" shape="800009.54,2039217.47 800006.90,2039216.63 800005.12,2039215.17 800004.20,2039213.08 800004.14,2039210.38"/>
    </edge>
    <edge id=":237919142_2" function="internal">
        <lane id=":237919142_2_0" index="0" allow="pedestrian delivery bicycle" speed="5.15" length="5.08" shape="800007.31,2039210.77 800007.35,2039212.12 800007.82,2039213.16 800008.73,2039213.89 800010.08,2039214.32"/>
    </edge>
    <edge id=":237919142_3" function="internal">
        <lane id=":237919142_3_0" index="0" allow="pedestrian delivery bicycle" speed="5.56" length="9.33" shape="800007.31,2039210.77 800005.95,2039220.00"/>
    </edge>
    <edge id=":237919142_4" function="internal">
        <lane id=":237919142_4_0" index="0" allow="pedestrian delivery bicycle" speed="5.56" length="9.18" shape="800002.80,2039219.46 800004.14,2039210.38"/>
    </edge>
    <edge id=":237919142_5" function="internal">
        <lane id=":237919142_5_0" index="0" allow="pedestrian delivery bicycle" speed="5.56" length="10.17" shape="800002.80,2039219.46 800003.65,2039216.81 800005.15,2039215.06 800007.30,2039214.24 800010.08,2039214.32"/>
    </edge>
    <edge id=":237919143_0" function="internal">
        <lane id=":237919143_0_0" index="0" allow="pedestrian delivery bicycle" speed="5.00" length="5.04" shape="800011.10,2039205.81 800009.72,2039205.79 800008.67,2039206.22 800007.96,2039207.11 800007.60,2039208.45"/>
    </edge>
    <edge id=":237919143_1" function="internal">
        <lane id=":237919143_1_0" index="0" allow="pedestrian delivery bicycle" speed="5.56" length="9.43" shape="800011.10,2039205.81 800001.79,2039204.39"/>
    </edge>
    <edge id=":237919143_2" function="internal">
        <lane id=":237919143_2_0" index="0" allow="pedestrian delivery bicycle" speed="5.56" length="9.47" shape="800002.24,2039201.22 800011.61,2039202.65"/>
    </edge>
    <edge id=":237919143_3" function="internal">
        <lane id=":237919143_3_0" index="0" allow="pedestrian delivery bicycle" speed="5.56" length="10.21" shape="800002.24,2039201.22 800004.88,2039202.01 800006.65,2039203.47 800007.56,2039205.62 800007.60,2039208.45"/>
    </edge>
    <edge id=":237919143_4" function="internal">
        <lane id=":237919143_4_0" index="0" allow="pedestrian delivery bicycle" speed="5.13" length="5.12" shape="800004.42,2039208.06 800004.41,2039206.62 800003.96,2039205.53 800003.09,2039204.78 800001.79,2039204.39"/>
    </edge>
    <edge id=":237919143_5" function="internal">