<?xml version="1.0" encoding="UTF-8"?>

<!-- generated on 2024-02-23 19:40:32 by Eclipse SUMO netedit Version 1.18.0
-->

<additional xmlns:xsi="http://www.w3.org/2001/XMLSchema-instance" xsi:noNamespaceSchemaLocation="http://sumo.dlr.de/xsd/additional_file.xsd">
    <!-- Calibrators -->
    <calibrator id="ca_1" edge="419549215#0" pos="0.00" jamThreshold="50.00"/>
</additional>
