<?xml version="1.0" encoding="UTF-8"?>

<!-- generated on 2024-05-07 12:14:32 by Eclipse SUMO sumo Version 1.19.0
-->

<configuration xmlns:xsi="http://www.w3.org/2001/XMLSchema-instance" xsi:noNamespaceSchemaLocation="http://sumo.dlr.de/xsd/sumoConfiguration.xsd">

    <input>
        <net-file value="sumo_sim.net.xml"/>
        <route-files value="sumo_sim.rou.xml"/>
        <additional-files value="sumo_sim.add.xml"/>
    </input>

</configuration>
