<?xml version="1.0" encoding="UTF-8"?>

<!-- generated on 2024-05-07 12:01:16 by Eclipse SUMO netedit Version 1.19.0
-->

<routes xmlns:xsi="http://www.w3.org/2001/XMLSchema-instance" xsi:noNamespaceSchemaLocation="http://sumo.dlr.de/xsd/routes_file.xsd">
    <!-- Vehicles, persons and containers (sorted by depart) -->
    <flow id="f_0" begin="0.00" color="0,52,255" from="419549209#1" to="57947376#1" via="60340391#0" end="3600.00" vehsPerHour="2000"/>
    <flow id="f_1" begin="0.00" from="22149695#1" to="57947376#1" via="202286756#0" end="3600.00" vehsPerHour="1699.71671388101981392538"/>
</routes>
