<?xml version="1.0" encoding="UTF-8"?>

<!-- generated on 2024-05-07 12:01:16 by Eclipse SUMO netedit Version 1.19.0
-->

<additional xmlns:xsi="http://www.w3.org/2001/XMLSchema-instance" xsi:noNamespaceSchemaLocation="http://sumo.dlr.de/xsd/additional_file.xsd">
    <!-- Other additionals -->
    <rerouter id="entrada_1_dtl" edges="57898381#1 1056713163#0" pos="790121.58,2038674.62" probability="0.25">
        <interval begin="0.00" end="3600.00">
            <destProbReroute id="1056713163#0" probability="0.25"/>
        </interval>
    </rerouter>
    <rerouter id="entrada_2_dtl" edges="57898381#1 1056713163#1" pos="790121.58,2038674.62" probability="0.25">
        <interval begin="0.00" end="3600.00">
            <destProbReroute id="1056713163#1" probability="0.25"/>
        </interval>
    </rerouter>
</additional>
