<?xml version="1.0" encoding="UTF-8"?>

<!-- generated on 2024-04-15 16:37:09 by Eclipse SUMO netedit Version 1.19.0
-->

<routes xmlns:xsi="http://www.w3.org/2001/XMLSchema-instance" xsi:noNamespaceSchemaLocation="http://sumo.dlr.de/xsd/routes_file.xsd">
    <!-- Vehicles, persons and containers (sorted by depart) -->
    <!-- f_0 -> direccion SJ a Arecibo -->
    <flow id="f_0" begin="0.00" from="217179738" to="419549213#1"    end="3600.00" vehsPerHour="1699.71671388101981392538"/> 
    <!-- f_1 -> Arecibo a SJ (principal) -->
    <flow id="f_1" begin="0.00" from="22149695#1" to="57947376#1" via="59969000" end="3600.00" vehsPerHour="2000"/>
    <!-- f_2 -> Arecibo a SJ rampa -->
    <flow id="f_2" begin="0.00" from="419549209#1" to="57947376#1" via="59969000" end="3600.00" vehsPerHour="1699.71671388101981392538"/>
</routes>
