<?xml version="1.0" encoding="UTF-8"?>

<!-- generated on 2024-05-17 06:33:48 by Eclipse SUMO netedit Version 1.19.0
-->

<additional xmlns:xsi="http://www.w3.org/2001/XMLSchema-instance" xsi:noNamespaceSchemaLocation="http://sumo.dlr.de/xsd/additional_file.xsd">
    <!-- Detectors -->
    <!-- inicio -->
    <laneAreaDetector id="e2_0" lane="E7_0" pos="10.67" length="600.00" period="30.00" file="e2_0.xml"/>
    <laneAreaDetector id="e2_1" lane="E7_1" pos="10.67" length="600.00" period="30.00" file="e2_1.xml"/>
<!-- inicio -->
    <laneAreaDetector id="e2_2" lane="E7.142_0" pos="10.67" length="600.00" period="30.00" file="e2_2.xml"/>
    <laneAreaDetector id="e2_3" lane="E7.142_1" pos="10.67" length="600.00" period="30.00" file="e2_3.xml"/>
    <!-- medio -->
    <laneAreaDetector id="e2_4" lane="E0_0" pos="10" length="200.00" period="30.00" file="e2_4.xml"/>
    <laneAreaDetector id="e2_5" lane="E1_0" pos="10" length="200.00" period="30.00" file="e2_5.xml"/>
<!-- final -->
    <laneAreaDetector id="e2_6" lane="E2_1" pos="10.67" length="600.00" period="30.00" file="e2_6.xml"/>
    <laneAreaDetector id="e2_7" lane="E2_0" pos="10.67" length="600.00" period="30.00" file="e2_7.xml"/>

</additional>
