<?xml version="1.0" encoding="UTF-8"?>

<!-- generated on 2024-06-05 18:17:10 by Eclipse SUMO netedit Version 1.19.0
<configuration xmlns:xsi="http://www.w3.org/2001/XMLSchema-instance" xsi:noNamespaceSchemaLocation="http://sumo.dlr.de/xsd/neteditConfiguration.xsd">

    <input>
        <sumocfg-file value="C:\Users\joshu\Code\sumo-str-sim\pureba\sumoNet.sumocfg"/>
        <additional-files value="C:\Users\joshu\Code\sumo-str-sim\pureba\net.add.xml"/>
        <route-files value="C:\Users\joshu\Code\sumo-str-sim\pureba\net.rou.xml"/>
        <sumo-net-file value="C:\Users\joshu\Code\sumo-str-sim\pureba\net.net.xml"/>
    </input>

    <output>
        <output-file value="C:\Users\joshu\Code\sumo-str-sim\pureba\net.net.xml"/>
    </output>

    <processing>
        <geometry.min-radius.fix.railways value="false"/>
        <geometry.max-grade.fix value="false"/>
        <offset.disable-normalization value="true"/>
        <lefthand value="0"/>
    </processing>

    <junctions>
        <no-turnarounds value="true"/>
        <junctions.corner-detail value="5"/>
        <junctions.limit-turn-speed value="5.50"/>
        <rectangular-lane-cut value="0"/>
    </junctions>

    <pedestrian>
        <walkingareas value="0"/>
    </pedestrian>

</configuration>
-->

<net version="1.16" junctionCornerDetail="5" limitTurnSpeed="5.50" xmlns:xsi="http://www.w3.org/2001/XMLSchema-instance" xsi:noNamespaceSchemaLocation="http://sumo.dlr.de/xsd/net_file.xsd">

    <location netOffset="0.00,0.00" convBoundary="-264.12,-77.72,471.47,104.47" origBoundary="-10000000000.00,-10000000000.00,10000000000.00,10000000000.00" projParameter="!"/>

    <edge id=":J11_0" function="internal">
        <lane id=":J11_0_0" index="0" speed="6.84" length="8.18" shape="187.67,91.55 188.52,93.73 189.74,95.28 191.35,96.21 193.34,96.50"/>
    </edge>
    <edge id=":J11_1" function="internal">
        <lane id=":J11_1_0" index="0" speed="13.89" length="9.50" shape="183.82,96.60 193.34,96.50"/>
        <lane id=":J11_1_1" index="1" speed="13.89" length="9.50" shape="183.87,99.80 193.36,99.70"/>
    </edge>
    <edge id=":J14_0" function="internal">
        <lane id=":J14_0_0" index="0" speed="6.93" length="8.11" shape="-55.76,99.67 -53.84,99.36 -52.26,98.43 -51.02,96.89 -50.12,94.72"/>
    </edge>
    <edge id=":J14_1" function="internal">
        <lane id=":J14_1_0" index="0" speed="13.89" length="9.37" shape="-55.76,99.67 -46.41,99.61"/>
        <lane id=":J14_1_1" index="1" speed="13.89" length="9.37" shape="-55.77,102.87 -46.37,102.81"/>
    </edge>

    <edge id="E0" from="J14" to="J0" priority="-1" length="213.36">
        <lane id="E0_0" index="0" speed="13.89" length="213.36" shape="-50.12,94.72 0.80,-78.17"/>
    </edge>
    <edge id="E1" from="J1" to="J11" priority="-1" length="213.36">
        <lane id="E1_0" index="0" speed="13.89" length="213.36" shape="143.99,-74.65 187.67,91.55"/>
    </edge>
    <edge id="E2" from="J11" to="J2" priority="-1" length="1609.34">
        <lane id="E2_0" index="0" speed="13.89" length="1609.34" shape="193.34,96.50 471.43,94.29"/>
        <lane id="E2_1" index="1" speed="13.89" length="1609.34" shape="193.36,99.70 471.46,97.49"/>
    </edge>
    <edge id="E7" from="J8" to="J14" priority="-1" length="1609.34">
        <lane id="E7_0" index="0" speed="13.89" length="1609.34" shape="-264.12,99.59 -55.76,99.67"/>
        <lane id="E7_1" index="1" speed="13.89" length="1609.34" shape="-264.12,102.79 -55.77,102.87"/>
    </edge>
    <edge id="E7.142" from="J14" to="J11" priority="-1" length="804.67">
        <lane id="E7.142_0" index="0" speed="13.89" length="804.67" shape="-46.41,99.61 183.82,96.60"/>
        <lane id="E7.142_1" index="1" speed="13.89" length="804.67" shape="-46.37,102.81 183.87,99.80"/>
    </edge>

    <junction id="J0" type="dead_end" x="2.33" y="-77.72" incLanes="E0_0" intLanes="" shape="-0.74,-78.62 2.33,-77.72"/>
    <junction id="J1" type="dead_end" x="142.44" y="-74.24" incLanes="" intLanes="" shape="142.44,-74.24 145.53,-75.05"/>
    <junction id="J11" type="priority" x="188.59" y="101.34" incLanes="E1_0 E7.142_0 E7.142_1" intLanes=":J11_0_0 :J11_1_0 :J11_1_1" shape="193.37,101.30 193.32,94.90 191.48,94.50 190.74,93.97 190.12,93.24 189.61,92.30 189.22,91.14 186.12,91.95 186.22,93.63 185.94,94.22 185.44,94.65 184.73,94.91 183.80,95.00 183.89,101.40">
        <request index="0" response="110" foes="110" cont="0"/>
        <request index="1" response="000" foes="001" cont="0"/>
        <request index="2" response="000" foes="001" cont="0"/>
    </junction>
    <junction id="J14" type="priority" x="-51.32" y="104.47" incLanes="E7_0 E7_1" intLanes=":J14_0_0 :J14_1_0 :J14_1_1" shape="-46.35,104.41 -46.44,98.01 -48.00,97.71 -48.47,97.32 -48.72,96.76 -48.76,96.05 -48.58,95.17 -51.65,94.27 -52.61,96.38 -53.24,97.12 -53.98,97.65 -54.82,97.96 -55.76,98.07 -55.77,104.47">
        <request index="0" response="000" foes="000" cont="0"/>
        <request index="1" response="000" foes="000" cont="0"/>
        <request index="2" response="000" foes="000" cont="0"/>
    </junction>
    <junction id="J2" type="dead_end" x="471.47" y="99.09" incLanes="E2_0 E2_1" intLanes="" shape="471.42,92.69 471.47,99.09"/>
    <junction id="J8" type="dead_end" x="-264.12" y="104.39" incLanes="" intLanes="" shape="-264.12,104.39 -264.12,97.99"/>

    <connection from="E1" to="E2" fromLane="0" toLane="0" via=":J11_0_0" dir="r" state="m"/>
    <connection from="E7" to="E0" fromLane="0" toLane="0" via=":J14_0_0" dir="r" state="M"/>
    <connection from="E7" to="E7.142" fromLane="0" toLane="0" via=":J14_1_0" dir="s" state="M"/>
    <connection from="E7" to="E7.142" fromLane="1" toLane="1" via=":J14_1_1" dir="s" state="M"/>
    <connection from="E7.142" to="E2" fromLane="0" toLane="0" via=":J11_1_0" dir="s" state="M"/>
    <connection from="E7.142" to="E2" fromLane="1" toLane="1" via=":J11_1_1" dir="s" state="M"/>

    <connection from=":J11_0" to="E2" fromLane="0" toLane="0" dir="r" state="M"/>
    <connection from=":J11_1" to="E2" fromLane="0" toLane="0" dir="s" state="M"/>
    <connection from=":J11_1" to="E2" fromLane="1" toLane="1" dir="s" state="M"/>
    <connection from=":J14_0" to="E0" fromLane="0" toLane="0" dir="r" state="M"/>
    <connection from=":J14_1" to="E7.142" fromLane="0" toLane="0" dir="s" state="M"/>
    <connection from=":J14_1" to="E7.142" fromLane="1" toLane="1" dir="s" state="M"/>

</net>
