<?xml version="1.0" encoding="UTF-8"?>

<!-- generated on 2024-05-14 09:38:41 by Eclipse SUMO netedit Version 1.19.0
-->

<routes xmlns:xsi="http://www.w3.org/2001/XMLSchema-instance" xsi:noNamespaceSchemaLocation="http://sumo.dlr.de/xsd/routes_file.xsd">
    <!-- Vehicles, persons and containers (sorted by depart) -->
    <flow id="f_0" begin="0.00" from="E7" to="E4.377" via="E7.142" end="3600.00" vehsPerHour="2599.27797833935028393171"/>
    <flow id="f_1" begin="0.00" from="E7" to="E8" end="3600.00" vehsPerHour="200"/>
</routes>
