<?xml version="1.0" encoding="UTF-8"?>

<!-- generated on 2024-06-05 18:17:10 by Eclipse SUMO sumo Version 1.19.0
-->

<configuration xmlns:xsi="http://www.w3.org/2001/XMLSchema-instance" xsi:noNamespaceSchemaLocation="http://sumo.dlr.de/xsd/sumoConfiguration.xsd">

    <input>
        <net-file value="net.net.xml"/>
        <route-files value="net.rou.xml"/>
        <additional-files value="net.add.xml,sumoNet.med.add.xml"/>
    </input>

</configuration>
