<?xml version="1.0" encoding="UTF-8"?>

<!-- generated on 2024-03-16 18:41:39 by Eclipse SUMO netedit Version 1.18.0
-->

<additional xmlns:xsi="http://www.w3.org/2001/XMLSchema-instance" xsi:noNamespaceSchemaLocation="http://sumo.dlr.de/xsd/additional_file.xsd">
    <!-- Calibrators -->
    <calibrator id="ca_0" lane="1056713157_0" pos="22.85" jamThreshold="1.00"/>
</additional>
