<?xml version="1.0" encoding="UTF-8"?>

<!-- generated on 2024-03-16 18:12:01 by Eclipse SUMO netedit Version 1.18.0
-->

<configuration xmlns:xsi="http://www.w3.org/2001/XMLSchema-instance" xsi:noNamespaceSchemaLocation="http://sumo.dlr.de/xsd/neteditConfiguration.xsd">

    <input>
        <sumocfg-file value="sumo.sumocfg"/>
        <route-files value="planet_-66.728_18.446_187dbe73.osm.rou.xml"/>
        <sumo-net-file value="planet_-66.728_18.446_187dbe73.osm.net.xml"/>
        <osm-files value="planet_-66.728_18.446_187dbe73.osm"/>
    </input>

    <projection>
        <proj.utm value="true"/>
    </projection>

    <processing>
        <geometry.remove value="true"/>
        <offset.disable-normalization value="true"/>
    </processing>

    <tls_building>
        <tls.discard-simple value="true"/>
        <tls.guess-signals value="true"/>
    </tls_building>

    <ramp_guessing>
        <ramps.guess value="true"/>
    </ramp_guessing>

    <junctions>
        <no-turnarounds value="true"/>
        <junctions.join value="true"/>
    </junctions>

</configuration>
