<?xml version="1.0" encoding="UTF-8"?>

<!-- generated on 2024-03-16 18:11:48 by Eclipse SUMO netedit Version 1.18.0
-->

<routes xmlns:xsi="http://www.w3.org/2001/XMLSchema-instance" xsi:noNamespaceSchemaLocation="http://sumo.dlr.de/xsd/routes_file.xsd">
    <!-- VTypes -->
    <vType id="DEFAULT_VEHTYPE" minGap="1.50" color="0,128,0" laneChangeModel="LC2013" carFollowModel="W99" cc1="0.9" cc2="4" cc3="-8" cc4="-0.35" cc6="11.44" cc8="3.5"/>
    <!-- Vehicles, persons and containers (sorted by depart) -->
    <flow id="t_0" vehsPerHour="2000" begin="0.00" color="red" from="199513334" to="57947376#1"/>
    <flow id="t_1" vehsPerHour="2000" begin="0.00" color="green" from="22110544" to="57947376#1"/>
    <flow id="t_2" vehsPerHour="2000" begin="0.00" color="green" from="-22103667" to="57947376#1"/>
    <flow id="t_3" vehsPerHour="2000" begin="0.00" color="green" from="527346137#0" to="57947376#1"/>
    <flow id="t_4"  vehsPerHour="2000" begin="0.00" color="blue" from="22106709" to="57947376#1"/>
    <flow id="t_5"  vehsPerHour="2000" begin="0.00" from="-22183929" to="57947376#1"/>
    <flow id="t_6"  vehsPerHour="2000" begin="0.00" color="cyan" from="414248981#0" to="57947376#1"/>
    <flow id="t_7"  vehsPerHour="2000" begin="0.00" color="128,0,0" from="57898477#0" to="57947376#1"/>
</routes>
