<?xml version="1.0" encoding="UTF-8"?>

<!-- generated on 2024-03-31 18:52:15 by Eclipse SUMO netedit Version 1.19.0
-->

<routes xmlns:xsi="http://www.w3.org/2001/XMLSchema-instance" xsi:noNamespaceSchemaLocation="http://sumo.dlr.de/xsd/routes_file.xsd">
    <!-- VTypes -->
    <vType id="DEFAULT_VEHTYPE" laneChangeModel="LC2013" carFollowModel="W99"/>
    <!-- Vehicles, persons and containers (sorted by depart) -->
    <flow id="f_0" begin="0.00" from="199513334" to="57947376#1" end="3600.00" vehsPerHour="2000"/>
    <flow id="f_1" begin="0.00" from="536337013#0" to="57947376#1" end="3600.00" vehsPerHour="2000"/>
    <flow id="f_2" begin="0.00" from="22248847#0" to="57947376#1" end="3600.00" vehsPerHour="2000"/>
    <flow id="f_3" begin="0.00" from="22151872#0" to="57947376#1" end="3600.00" vehsPerHour="2000"/>
    <flow id="f_4" begin="0.00" from="526474869" to="57947376#1" end="3600.00" vehsPerHour="2000"/>
</routes>
