<?xml version="1.0" encoding="UTF-8"?>

<!-- generated on 2024-03-31 17:41:43 by Eclipse SUMO netedit Version 1.19.0
-->

<additional xmlns:xsi="http://www.w3.org/2001/XMLSchema-instance" xsi:noNamespaceSchemaLocation="http://sumo.dlr.de/xsd/additional_file.xsd">
    <!-- MeanDataEdges -->
    <edgeData id="edgeData" file="data.xml" period="60.00"/>
</additional>
