<?xml version="1.0" encoding="UTF-8"?>

<!-- generated on 2024-03-31 18:52:15 by Eclipse SUMO sumo Version 1.19.0
-->

<configuration xmlns:xsi="http://www.w3.org/2001/XMLSchema-instance" xsi:noNamespaceSchemaLocation="http://sumo.dlr.de/xsd/sumoConfiguration.xsd">

    <input>
        <net-file value="pr2_conf.net.xml"/>
        <route-files value="pr2_conf.rou.xml"/>
    </input>

</configuration>
