<?xml version="1.0" encoding="UTF-8"?>

<!-- generated on 2024-04-02 19:22:37 by Eclipse SUMO netedit Version 1.19.0
-->

<routes xmlns:xsi="http://www.w3.org/2001/XMLSchema-instance" xsi:noNamespaceSchemaLocation="http://sumo.dlr.de/xsd/routes_file.xsd">
    <!-- VTypes -->
    <vType id="DEFAULT_VEHTYPE" minGap="1.50" laneChangeModel="LC2013" carFollowModel="W99" cc1="0.90" cc2="4.00" cc3="-8.00" cc4="-0.35" cc6="11.44" cc8="3.50"/>
    <!-- Vehicles, persons and containers (sorted by depart) -->
    <flow id="f_0" begin="0.00" color="red" from="419549209#1" to="57947376#1" via="55177153#2" end="3600.00" vehsPerHour="2599.27797833935028393171"/>
  
    <flow id="f_1" begin="0.00" color="0,66,255" from="22149695#1" to="57947376#1" via="202286756#0" end="3600.00" vehsPerHour="1500"/>
</routes>
