<?xml version="1.0" encoding="UTF-8"?>

<!-- generated on 2024-03-16 18:36:10 by Eclipse SUMO netedit Version 1.18.0
-->

<routes xmlns:xsi="http://www.w3.org/2001/XMLSchema-instance" xsi:noNamespaceSchemaLocation="http://sumo.dlr.de/xsd/routes_file.xsd">
    <!-- Vehicles, persons and containers (sorted by depart) -->
    <flow id="f_0" begin="0.00" from="199513334" to="57947376#1" end="3600.00" vehsPerHour="2000.00"/>
    <flow id="f_1" begin="0.00" from="22235048" to="57947376#1" end="3600.00" vehsPerHour="2000.00"/>
    <flow id="f_2" begin="0.00" color="blue" from="57898477#0" to="57947376#1" end="3600.00" vehsPerHour="2000.00"/>
    <flow id="f_3" begin="0.00" color="magenta" from="22111288#0" to="57947376#1" end="3600.00" vehsPerHour="2000.00"/>
    <flow id="f_4" begin="0.00" from="-22103667" to="57947376#1" end="3600.00" vehsPerHour="2000.00"/>
    <flow id="f_5" begin="0.00" color="green" from="309376364#0" to="57947376#1" end="3600.00" vehsPerHour="2000.00"/>
</routes>
