<?xml version="1.0" encoding="UTF-8"?>

<!-- generated on 2024-03-17 19:47:53 by Eclipse SUMO sumo Version 1.18.0
-->

<configuration xmlns:xsi="http://www.w3.org/2001/XMLSchema-instance" xsi:noNamespaceSchemaLocation="http://sumo.dlr.de/xsd/sumoConfiguration.xsd">

    <input>
        <net-file value="../mapa_original/mapa-pr-22.osm.net.xml"/>
        <route-files value="../mapa_original/mapa-pr-22.osm.rou.xml"/>
    </input>

</configuration>
