<?xml version="1.0" encoding="UTF-8"?>

<!-- generated on 2024-03-16 18:41:42 by Eclipse SUMO sumo Version 1.18.0
-->

<configuration xmlns:xsi="http://www.w3.org/2001/XMLSchema-instance" xsi:noNamespaceSchemaLocation="http://sumo.dlr.de/xsd/sumoConfiguration.xsd">

    <input>
        <net-file value="planet_-66.728_18.446_187dbe73.osm.net.xml"/>
        <route-files value="sumo.rou.xml"/>
        <additional-files value="netconf.add.xml"/>
    </input>

</configuration>
