<?xml version="1.0" encoding="UTF-8"?>

<!-- generated on 2024-03-26 10:33:37 by Eclipse SUMO netedit Version 1.19.0
-->

<additional xmlns:xsi="http://www.w3.org/2001/XMLSchema-instance" xsi:noNamespaceSchemaLocation="http://sumo.dlr.de/xsd/additional_file.xsd">
    <!-- Calibrators -->
    <calibrator id="ca_0" edge="419549215#0" pos="0.00"/>
</additional>
