<?xml version="1.0" encoding="UTF-8"?>

<!-- generated on 2024-03-26 10:52:53 by Eclipse SUMO sumo Version 1.19.0
-->

<configuration xmlns:xsi="http://www.w3.org/2001/XMLSchema-instance" xsi:noNamespaceSchemaLocation="http://sumo.dlr.de/xsd/sumoConfiguration.xsd">

    <input>
        <net-file value="../mapa_original/mapa-pr-22.osm.net.xml"/>
        <route-files value="../mapa_original/mapa-pr-22.osm.rou.xml"/>
        <additional-files value="sumo.add.xml"/>
    </input>

</configuration>
